!!>>>>>>>>>>>>>>>>>>>>>>>>>>>>>>>>>>>>>>>>>>>>>>>>>>>>>>>>>>>>>>>>>>>>>>
!! NEMO/OCE  Configuration namelist : overwrite default values defined in SHARED/namelist_ref
!!>>>>>>>>>>>>>>>>>>>>>>>>>>>>>>>>>>>>>>>>>>>>>>>>>>>>>>>>>>>>>>>>>>>>>>
!!             eORCA025 - ICE configuration                           !!
!!======================================================================
!!              ***  Domain & Run management namelists  ***           !!
!!                                                                    !!
!!   namrun       parameters of the run
!!   namdom       space and time domain
!!   namcfg       parameters of the configuration                       (default: user defined GYRE)
!!   namwad       Wetting and drying                                    (default: OFF)
!!   namtsd       data: temperature & salinity                          (default: OFF)
!!   namcrs       coarsened grid (for outputs and/or TOP)               (ln_crs =T)
!!   namc1d       1D configuration options                              ("key_c1d")
!!   namc1d_dyndmp 1D newtonian damping applied on currents             ("key_c1d")
!!   namc1d_uvd   1D data (currents)                                    ("key_c1d")
!!======================================================================
!
!-----------------------------------------------------------------------
&namrun        !   parameters of the run
!-----------------------------------------------------------------------
   cn_exp      =  "eORCA025" !  experience name
   nn_it000    =       1   !  first time step
   nn_itend    =      10   !  last  time step (std 26280)
   nn_date0    =  19790101 !  date at nit_0000 (format yyyymmdd) used if ln_rstart=F or (ln_rstart=T and nn_rstctl=0 or 1)
   ln_rstart   =  .false.   !  start from rest (F) or from a restart file (T)
      nn_euler    =    1      !  = 0 : start with forward time step if ln_rstart=T
      nn_rstctl   =    2      !  restart control ==> activated only if ln_rstart=T
      !                          !    = 1 nn_date0 read in namelist ; nn_it000 : check consistancy between namelist and restart
      !                          !    = 2 nn_date0 read in restart  ; nn_it000 : check consistancy between namelist and restart
      cn_ocerst_in    = "eORCA025_00000000_restart"   !  suffix of ocean restart name (input)
      cn_ocerst_indir = "."         !  directory from which to read input ocean restarts
   nn_istate   =       0   !  output the initial state (1) or not (0)
   ln_rst_list = .false.   !  output restarts at list of times using nn_stocklist (T) or at set frequency with nn_stock (F)
   nn_stock    =       0   !  used only if ln_rst_list = F: output restart freqeuncy (modulo referenced to 1)
      !                          !    =  0 force to write restart files only at the end of the run
      !                          !    = -1 do not do any restart
/
!-----------------------------------------------------------------------
&namdom        !   time and space domain
!-----------------------------------------------------------------------
   ln_linssh   = .true.    !  =T  linear free surface  ==>>  model level are fixed in time
   rn_rdt      = 1200.  
   ln_meshmask = .false.   !  =T create a mesh file
/
!-----------------------------------------------------------------------
&namcfg        !   parameters of the configuration                      (default: use namusr_def in namelist_cfg)
!-----------------------------------------------------------------------
   ln_read_cfg = .true.    !  (=T) read the domain configuration file
      !
      cn_domcfg = "eORCA_R025_zps_domcfg_hmin-5"    ! domain configuration filename
      ln_closea    = .false.    !  F => suppress closed seas (defined by closea_mask field) 
      !                         !       from the bathymetry at runtime.
/
!-----------------------------------------------------------------------
&namtsd        !    Temperature & Salinity Data  (init/dmp)             (default: OFF)
!-----------------------------------------------------------------------
   !                       ! =T  read T-S fields for:
   ln_tsd_init = .true.          !  ocean initialisation
   ln_tsd_dmp  = .false.         !  T-S restoring   (see namtra_dmp)

   cn_dir = '/scratch/project_2004927/nemoinput/eORCA025/'     !  root directory for the T-S data location
   !___________!_________________________!___________________!___________!_____________!________!___________!__________________!__________!_______________!
   !           !  file name              ! frequency (hours) ! variable  ! time interp.!  clim  ! 'yearly'/ ! weights filename ! rotation ! land/sea mask !
   !           !                         !  (if <0  months)  !   name    !   (logical) !  (T/F) ! 'monthly' !                  ! pairing  !    filename   !
   sn_tem  = 'conservative_temperature_WOA13_decav_Reg1L75_clim', -1 ,'votemper' , .true. , .true. , 'yearly' , 'weights_WOA13d1_2_eorca025_bilinear2.nc'  ,   ''    ,    ''
   sn_sal  = 'absolute_salinity_WOA13_decav_Reg1L75_clim'       , -1 ,'vosaline' , .true. , .true. , 'yearly' , 'weights_WOA13d1_2_eorca025_bilinear2.nc'  ,   ''    ,    ''
/
!!======================================================================
!!            ***  Surface Boundary Condition namelists  ***          !!
!!                                                                    !!
!!   namsbc          surface boundary condition manager                 (default: NO selection)
!!   namsbc_flx      flux               formulation                     (ln_flx     =T)
!!   namsbc_blk      Bulk formulae formulation                          (ln_blk     =T)
!!   namsbc_cpl      CouPLed            formulation                     ("key_oasis3" )
!!   namsbc_sas      Stand-Alone Surface module                         (SAS_SRC  only)
!!   namsbc_iif      Ice-IF: use observed ice cover                     (nn_ice = 1   )
!!   namtra_qsr      penetrative solar radiation                        (ln_traqsr  =T)
!!   namsbc_ssr      sea surface restoring term (for T and/or S)        (ln_ssr     =T)
!!   namsbc_rnf      river runoffs                                      (ln_rnf     =T)
!!   namsbc_apr      Atmospheric Pressure                               (ln_apr_dyn =T)
!!   namsbc_isf      ice shelf melting/freezing                         (ln_isfcav  =T : read (ln_read_cfg=T) or set or usr_def_zgr )
!!   namsbc_iscpl    coupling option between land ice model and ocean   (ln_isfcav  =T)
!!   namsbc_wave     external fields from wave model                    (ln_wave    =T)
!!   namberg         iceberg floats                                     (ln_icebergs=T)
!!======================================================================
!
!-----------------------------------------------------------------------
&namsbc        !   Surface Boundary Condition manager                   (default: NO selection)
!-----------------------------------------------------------------------
   nn_fsbc     = 1         !  frequency of SBC module call
                           !     (also = the frequency of sea-ice & iceberg model call)
                     ! Type of air-sea fluxes 
   ln_blk      = .true.    !  Bulk formulation                          (T => fill namsbc_blk )
                     ! Sea-ice :
   nn_ice      = 2         !  =2 or 3 automatically for SI3 or CICE    ("key_si3" or "key_cice")
                           !          except in AGRIF zoom where it has to be specified
                     ! Misc. options of sbc : 
   ln_traqsr   = .true.   !  Light penetration in the ocean            (T => fill namtra_qsr)
   ln_ssr      = .true.    !  Sea Surface Restoring on T and/or S       (T => fill namsbc_ssr)
   ln_rnf      = .true.   !  runoffs                                   (T => fill namsbc_rnf)
   nn_fwb      = 2         !  FreshWater Budget: 
   !                       !    =2 annual global mean of e-p-r set to zero
/
!-----------------------------------------------------------------------
&namsbc_blk    !   namsbc_blk  generic Bulk formula                     (ln_blk =T)
!-----------------------------------------------------------------------
   !                    !  bulk algorithm :
   ln_NCAR    = .true.     ! "NCAR"      algorithm   (Large and Yeager 2008)

   cn_dir = '/scratch/project_2004927/nemoforcing/DFS5.2/'  !  root directory for the bulk data location
   !___________!_________________________!___________________!___________!_____________!________!___________!______________________________________!__________!_______________!
   !           !  file name              ! frequency (hours) ! variable  ! time interp.!  clim  ! 'yearly'/ !          weights filename            ! rotation ! land/sea mask !
   !           !                         !  (if <0  months)  !   name    !   (logical) !  (T/F) ! 'monthly' !                                      ! pairing  !    filename   !
   sn_wndi =    'drowned_u10_DFS5.2'   ,     3.          ,  'u10'    ,    .true.   , .false. ,  'yearly' ,  'eORCA025_DFS5.2_c3.0_weights_bicubic.nc' , 'U1'     , ''
   sn_wndj =    'drowned_v10_DFS5.2'   ,     3.          ,  'v10'    ,    .true.   , .false. ,  'yearly' ,  'eORCA025_DFS5.2_c3.0_weights_bicubic.nc' , 'V1'     , ''
   sn_qsr  =    'drowned_radsw_DFS5.2' ,    24.          ,  'radsw'  ,    .false.  , .false. ,  'yearly' ,  'eORCA025_DFS5.2_c3.0_weights_bilin.nc' , ''       , ''
   sn_qlw  =    'drowned_radlw_DFS5.2' ,    24.          ,  'radlw'  ,    .false.  , .false. ,  'yearly' ,  'eORCA025_DFS5.2_c3.0_weights_bilin.nc' , ''       , ''
   sn_tair =    'drowned_t2_DFS5.2'    ,     3.          ,  't2'     ,    .true.   , .false. ,  'yearly' ,  'eORCA025_DFS5.2_c3.0_weights_bilin.nc' , ''       , ''
   sn_humi =    'drowned_q2_DFS5.2'    ,     3.          ,  'q2'     ,    .true.   , .false. ,  'yearly' ,  'eORCA025_DFS5.2_c3.0_weights_bilin.nc' , ''       , ''
   sn_prec =    'drowned_precip_DFS5.2' ,   24.          ,  'precip' ,    .true.   , .false. ,  'yearly' ,  'eORCA025_DFS5.2_c3.0_weights_bilin.nc' , ''       , ''
   sn_snow =    'drowned_snow_DFS5.2'  ,    24.          ,  'snow'   ,    .true.   , .false. ,  'yearly' ,  'eORCA025_DFS5.2_c3.0_weights_bilin.nc' , ''       , ''
   sn_slp  =    'drowned_msl_ERAinterim' ,  24.          ,  'msl'    ,    .true.   , .false. ,  'yearly' ,  'eORCA025_DFS5.2_c3.0_weights_bilin.nc' , ''       , ''
   sn_tdif =    'taudif'               ,    24.          ,  'taudif' ,    .true.   , .false. ,  'yearly' ,            ''                 , ''       , ''
   !
   rn_zqt      = 2.        !  Air temperature and humidity reference height (m) (ln_bulk2z)
/
!-----------------------------------------------------------------------
&namtra_qsr    !   penetrative solar radiation                          (ln_traqsr =T)
!-----------------------------------------------------------------------
   !                       ! type of penetration                        (default: NO selection)
   ln_qsr_rgb  = .true.       !  RGB light penetration (Red-Green-Blue)
   !
   nn_chldta   =      1       !  RGB : Chl data (=1) or cst value (=0)

   cn_dir = '/scratch/project_2004927/nemoinput/eORCA025/'  !  root directory for the chlorophyl data location
   !___________!_________________________!___________________!___________!_____________!________!___________!__________________!__________!_______________!
   !           !  file name              ! frequency (hours) ! variable  ! time interp.!  clim  ! 'yearly'/ ! weights filename ! rotation ! land/sea mask !
   !           !                         !  (if <0  months)  !   name    !   (logical) !  (T/F) ! 'monthly' !                  ! pairing  !    filename   !
   sn_chl      = 'chlorophyl_v0.0.nc',        -1         , 'CHLA'    ,   .true.    , .true. , 'yearly'  , 'eORCA025_chlorophyl_v0.0_c3.0_weights_bilin.nc', ''       , ''
/
!-----------------------------------------------------------------------
&namsbc_ssr    !   surface boundary condition : sea surface restoring   (ln_ssr =T)
!-----------------------------------------------------------------------
!              !   file name  ! frequency (hours) ! variable   ! time interpol. !  clim   ! 'yearly'/ ! weights  ! rotation !
!              !              !  (if <0  months)  !   name     !    (logical)   !  (T/F)  ! 'monthly' ! filename ! pairing  !
   sn_sss      = 'sss_absolute_salinity_WOA13_decav_Reg1L75_clim', -1. , 'sosaline', .true. , .true. , 'yearly' , 'weights_WOA13d1_2_eorca025_bilinear.nc' , ''

   cn_dir      = '/scratch/project_2004927/nemoinput/eORCA025/'      !  root directory for the SST/SSS data location
   nn_sssr     =     2     !  add a damping term to the surface freshwater flux
   rn_deds     =  -20.00   !  magnitude of the damping on salinity   [mm/day]
   ln_sssr_bnd =  .true.   !  flag to bound erp term (associated with nn_sssr=2)
   rn_sssr_bnd =   2.e0    !  ABS(Max/Min) value of the damping erp term [mm/day]
/
!-----------------------------------------------------------------------
&namsbc_rnf    !   runoffs                                              (ln_rnf =T)
!-----------------------------------------------------------------------
   ln_rnf_mouth = .true.  !  specific treatment at rivers mouths
   rn_hrnf     =  10.e0    !  depth over which enhanced vertical mixing is used    (ln_rnf_mouth=T)
   rn_avt_rnf  =   2.e-3   !  value of the additional vertical mixing coef. [m2/s] (ln_rnf_mouth=T)
   rn_rfact    =   1.e0    !  multiplicative factor for runoff

   cn_dir = '/scratch/project_2004927/nemoinput/eORCA025/'  !  root directory for the location of the runoff files
   !___________!_____________!___________________!___________!_____________!_________!___________!__________!__________!_______________!
   !           !  file name  ! frequency (hours) ! variable  ! time interp. !  clim  ! 'yearly'/ ! weights  ! rotation ! land/sea mask !
   !           !             !  (if <0  months)  !   name    !   (logical)  !  (T/F) ! 'monthly' ! filename ! pairing  ! filename      !
   sn_rnf      = 'eORCA025_runoff_b0.2_v0.0.nc',   -1.       , 'sorunoff',   .true.    , .true. , 'yearly'  , ''               , ''       , ''
   sn_cnf      = 'eORCA025_runoff_b0.2_v0.0.nc',    0.       , 'socoefr' ,   .false.   , .true. , 'yearly'  , ''               , ''       , ''
/
!-----------------------------------------------------------------------
&namberg       !   iceberg parameters                                   (default: OFF)
!-----------------------------------------------------------------------
   ln_icebergs = .false.    ! activate iceberg floats (force =F with "key_agrif")

   cn_dir = '/scratch/project_2004927/nemoinput/eORCA025/'  !  root directory for the location of drag coefficient files
   !______!___________!___________________!______________!______________!_________!___________!__________!__________!_______________!
   !      ! file name ! frequency (hours) !   variable   ! time interp. !  clim   ! 'yearly'/ ! weights  ! rotation ! land/sea mask !
   !      !           !  (if <0  months)  !     name     !   (logical)  !  (T/F ) ! 'monthly' ! filename ! pairing  ! filename      !
   sn_icb =  'calving',       -1.         , 'calving'    ,   .true.     , .true.  , 'yearly'  , ''       , ''       , ''
/

!!======================================================================
!!               ***  Lateral boundary condition  ***                 !!
!!                                                                    !!
!!   namlbc        lateral momentum boundary condition                  (default: NO selection)
!!   namagrif      agrif nested grid   (read by child model only)       ("key_agrif")
!!   nam_tide      Tidal forcing                                        (default: OFF)
!!   nambdy        Unstructured open boundaries                         (default: OFF)
!!   nambdy_dta    Unstructured open boundaries - external data         (see  nambdy)
!!   nambdy_tide   tidal forcing at open boundaries                     (default: OFF)
!!======================================================================
!
!-----------------------------------------------------------------------
&namlbc        !   lateral momentum boundary condition                  (default: NO selection)
!-----------------------------------------------------------------------
   !                       !  free slip  !   partial slip  !   no slip   ! strong slip
   rn_shlat    =    0.     !  shlat = 0  !  0 < shlat < 2  !  shlat = 2  !  2 < shlat
/

!!======================================================================
!!                ***  Top/Bottom boundary condition  ***             !!
!!                                                                    !!
!!   namdrg        top/bottom drag coefficient                          (default: NO selection)
!!   namdrg_top    top    friction                                      (ln_drg_OFF=F & ln_isfcav=T)
!!   namdrg_bot    bottom friction                                      (ln_drg_OFF=F)
!!   nambbc        bottom temperature boundary condition                (default: OFF)
!!   nambbl        bottom boundary layer scheme                         (default: OFF)
!!======================================================================
!
!-----------------------------------------------------------------------
&namdrg        !   top/bottom drag coefficient                          (default: NO selection)
!-----------------------------------------------------------------------
   ln_non_lin  = .true.   !  non-linear  drag: Cd = Cd0 |U|
/
!-----------------------------------------------------------------------
&namdrg_top    !   TOP friction                                         (ln_drg_OFF =F & ln_isfcav=T)
!-----------------------------------------------------------------------
   rn_Cd0      =  2.5.e-3    !  drag coefficient [-]
   rn_ke0      =  0.0      !  background kinetic energy  [m2/s2] (non-linear cases)
/
!-----------------------------------------------------------------------
&nambbc        !   bottom temperature boundary condition                (default: OFF)
!-----------------------------------------------------------------------
   ln_trabbc   = .true.    !  Apply a geothermal heating at the ocean bottom
      nn_geoflx   =    2      !  geothermal heat flux: = 2 read variable flux [mW/m2]

   cn_dir = '/scratch/project_2004927/nemoinput/eORCA025/'  !  root directory for the geothermal data location
   !___________!_________________________!___________________!___________!_____________!________!___________!__________________!__________!_______________!
   !           !  file name              ! frequency (hours) ! variable  ! time interp.!  clim  ! 'yearly'/ ! weights filename ! rotation ! land/sea mask !
   !           !                         !  (if <0  months)  !   name    !   (logical) !  (T/F) ! 'monthly' !                  ! pairing  !    filename   !
   sn_qgh      ='ghflux_v2.0.nc',  -12.  , 'gh_flux'    ,   .false.     , .true. , 'yearly'  , 'eORCA025_ghflux_v2.0_c3.0_weights_bilin.nc'       , ''       , ''
/
!-----------------------------------------------------------------------
&nambbl        !   bottom boundary layer scheme                         (default: OFF)
!-----------------------------------------------------------------------
   ln_trabbl   = .true.    !  Bottom Boundary Layer parameterisation flag
      nn_bbl_ldf  =  1        !  diffusive bbl (=1)   or not (=0)
      nn_bbl_adv  =  1        !  advective bbl (=1/2) or not (=0)
      rn_ahtbbl   =  1000.    !  lateral mixing coefficient in the bbl  [m2/s]
      rn_gambbl   =  10.      !  advective bbl coefficient                 [s]
/

!!======================================================================
!!                        Tracer (T-S) namelists                      !!
!!                                                                    !!
!!   nameos        equation of state                                    (default: NO selection)
!!   namtra_adv    advection scheme                                     (default: NO selection)
!!   namtra_ldf    lateral diffusion scheme                             (default: NO selection)
!!   namtra_mle    mixed layer eddy param. (Fox-Kemper param.)          (default: OFF)
!!   namtra_eiv    eddy induced velocity param.                         (default: OFF)
!!   namtra_dmp    T & S newtonian damping                              (default: OFF)
!!======================================================================
!
!-----------------------------------------------------------------------
&nameos        !   ocean Equation Of Seawater                           (default: NO selection)
!-----------------------------------------------------------------------
   ln_teos10   = .true.         !  = Use TEOS-10
   ln_eos80    = .false.        !  = Use EOS80
/
!-----------------------------------------------------------------------
&namtra_adv    !   advection scheme for tracer                          (default: NO selection)
!-----------------------------------------------------------------------
   ln_traadv_fct = .true.     !  FCT scheme
/
!-----------------------------------------------------------------------
&namtra_ldf    !   lateral diffusion scheme for tracers                 (default: NO selection)
!-----------------------------------------------------------------------
   ln_traldf_lap   = .true.    !    laplacian operator
   ln_traldf_iso   = .true.    !  iso-neutral (Standard operator)
   ln_traldf_msc   = .true.    !  Method of Stabilizing Correction      (both operators)
   !                       !  Coefficients:
   nn_aht_ijk_t    = 20        !  space/time variation of eddy coef
      !                             !   = 20     aht = 1/2  Ud. max(e1,e2)
      rn_Ud        = 0.011          !  lateral diffusive velocity [m/s] (nn_aht_ijk_t= 0, 10, 20, 30)
      rn_Ld        = 200.e+3        !  lateral diffusive length   [m]   (nn_aht_ijk_t= 0, 10)
/
!-----------------------------------------------------------------------
&namtra_mle    !   mixed layer eddy parametrisation (Fox-Kemper)       (default: OFF)
!-----------------------------------------------------------------------
   ln_mle      = .true.   ! (T) use the Mixed Layer Eddy (MLE) parameterisation
/
!-----------------------------------------------------------------------
&namtra_eiv    !   eddy induced velocity param.                         (default: OFF)
!-----------------------------------------------------------------------
   ln_ldfeiv   = .true.    ! use eddy induced velocity parameterization
      !                        !  Coefficients:
      nn_aei_ijk_t  = 21          ! space/time variation of the eiv coeficient
      !                                !   = 21 F(i,j,t)  =Treguier et al. JPO 1997 formulation
      !                           !  time invariant coefficients:  aei0 = 1/2  Ue*Le 
      rn_Ue        = 0.03              !  lateral diffusive velocity [m/s] (nn_aht_ijk_t= 0, 10, 20, 30)
      rn_Le        = 200.e+3           !  lateral diffusive length   [m]   (nn_aht_ijk_t= 0, 10)
      !
      ln_ldfeiv_dia =.true.   ! diagnose eiv stream function and velocities
/
!-----------------------------------------------------------------------
&namtra_dmp    !   tracer: T & S newtonian damping                      (default: OFF)
!-----------------------------------------------------------------------
/

!!======================================================================
!!                      ***  Dynamics namelists  ***                  !!
!!                                                                    !!
!!   nam_vvl       vertical coordinate options                          (default: z-star)
!!   namdyn_adv    formulation of the momentum advection                (default: NO selection)
!!   namdyn_vor    advection scheme                                     (default: NO selection)
!!   namdyn_hpg    hydrostatic pressure gradient                        (default: NO selection)
!!   namdyn_spg    surface pressure gradient                            (default: NO selection)
!!   namdyn_ldf    lateral diffusion scheme                             (default: NO selection)
!!   namdta_dyn    offline TOP: dynamics read in files                  (OFF_SRC only)
!!======================================================================
!
!-----------------------------------------------------------------------
&namdyn_adv    !   formulation of the momentum advection                (default: NO selection)
!-----------------------------------------------------------------------
   ln_dynadv_vec = .true.  !  vector form - 2nd centered scheme
     nn_dynkeg     = 1        ! grad(KE) scheme: =0   C2  ;  =1   Hollingsworth correction
/
!-----------------------------------------------------------------------
&namdyn_vor    !   Vorticity / Coriolis scheme                          (default: NO selection)
!-----------------------------------------------------------------------
   ln_dynvor_een = .true.  !  energy & enstrophy scheme
/
!-----------------------------------------------------------------------
&namdyn_hpg    !   Hydrostatic pressure gradient option                 (default: NO selection)
!-----------------------------------------------------------------------
   ln_hpg_sco  = .true.   !  s-coordinate (standard jacobian formulation)
/
!-----------------------------------------------------------------------
&namdyn_spg    !   surface pressure gradient                            (default: NO selection)
!-----------------------------------------------------------------------
   ln_dynspg_ts   = .true.    ! split-explicit free surface
         nn_bt_flt     = 2          ! Time filter choice  = 0 None
         rn_bt_cmax   =  0.8        ! =T : the Maximum Courant Number allowed
/
!-----------------------------------------------------------------------
&namdyn_ldf    !   lateral diffusion on momentum                        (default: NO selection)
!-----------------------------------------------------------------------
   !                       !  Type of the operator :
   ln_dynldf_blp = .true.      !  bilaplacian operator
   ln_dynldf_hor = .true.      !  horizontal  (geopotential)
   nn_ahm_ijk_t  = 20          !  space/time variation of eddy coefficient :
      rn_Uv      = 0.0838      !  lateral viscous velocity [m/s] (nn_ahm_ijk_t= 0, 10, 20, 30)
/
!!======================================================================
!!                     vertical physics namelists                     !!
!!                                                                    !!
!!    namzdf        vertical physics manager                            (default: NO selection)
!!    namzdf_ric    richardson number vertical mixing                   (ln_zdfric=T)
!!    namzdf_tke    TKE vertical mixing                                 (ln_zdftke=T)
!!    namzdf_gls    GLS vertical mixing                                 (ln_zdfgls=T)
!!    namzdf_osm    OSM vertical diffusion                              (ln_zdfosm=T)
!!    namzdf_iwm    tidal mixing parameterization                       (ln_zdfiwm=T)
!!======================================================================
!
!-----------------------------------------------------------------------
&namzdf        !   vertical physics manager                             (default: NO selection)
!-----------------------------------------------------------------------
   !                       ! adaptive-implicit vertical advection
   ln_zad_Aimp = .true.    !  Courant number dependent scheme (Shchepetkin 2015)
   ln_zdftke   = .true.       !  Turbulent Kinetic Energy closure       (T =>   fill namzdf_tke)
   ln_zdfevd   = .true.       !  Enhanced Vertical Diffusion scheme
      nn_evdm  =    1            !  evd apply on tracer (=0) or on tracer and momentum (=1)
      rn_evd   =   10.           !  evd mixing coefficient [m2/s]
   ln_zdfddm   = .true.    ! double diffusive mixing
      rn_avts  =    1.e-4     !  maximum avs (vertical mixing on salinity)
      rn_hsbfr =    1.6       !  heat/salt buoyancy flux ratio
   ln_zdfiwm   = .false.       ! internal wave-induced mixing            (T =>   fill namzdf_iwm)
   !                       !  Coefficients
   rn_avm0     =   1.4e-6     !  vertical eddy viscosity   [m2/s]       (background Kz if ln_zdfcst=F)
   rn_avt0     =   1.4e-7     !  vertical eddy diffusivity [m2/s]       (background Kz if ln_zdfcst=F)
   nn_avb      =    0         !  profile for background avt & avm (=1) or not (=0)
   nn_havtb    =    1         !  horizontal shape for avtb (=1) or not (=0)
/
!-----------------------------------------------------------------------
&namzdf_tke    !   turbulent eddy kinetic dependent vertical diffusion  (ln_zdftke =T)
!-----------------------------------------------------------------------
   rn_emin     =   1.e-10  !  minimum value of tke [m2/s2]
/
!-----------------------------------------------------------------------
&namzdf_iwm    !    internal wave-driven mixing parameterization        (ln_zdfiwm =T)
!-----------------------------------------------------------------------
   ln_mevar    = .false.    !  variable (T) or constant (F) mixing efficiency
   ln_tsdiff   = .false.    !  account for differential T/S mixing (T) or not (F)
/
!!======================================================================
!!                  ***  Diagnostics namelists  ***                   !!
!!                                                                    !!
!!   namtrd       dynamics and/or tracer trends                         (default: OFF)
!!   namptr       Poleward Transport Diagnostics                        (default: OFF)
!!   namhsb       Heat and salt budgets                                 (default: OFF)