!!>>>>>>>>>>>>>>>>>>>>>>>>>>>>>>>>>>>>>>>>>>>>>>>>>>>>>>>>>>>>>>>>>>>>>>
!! NEMO/OCE  Configuration namelist : overwrite default values defined in SHARED/namelist_ref
!!>>>>>>>>>>>>>>>>>>>>>>>>>>>>>>>>>>>>>>>>>>>>>>>>>>>>>>>>>>>>>>>>>>>>>>
!!             ORCA2 - ICE - PISCES configuration                     !!
!!======================================================================
!!              ***  Domain & Run management namelists  ***           !!
!!                                                                    !!
!!   namrun       parameters of the run
!!   namdom       space and time domain
!!   namcfg       parameters of the configuration                       (default: user defined GYRE)
!!   namwad       Wetting and drying                                    (default: OFF)
!!   namtsd       data: temperature & salinity                          (default: OFF)
!!   namcrs       coarsened grid (for outputs and/or TOP)               (ln_crs =T)
!!   namc1d       1D configuration options                              (ln_c1d =T)
!!   namc1d_dyndmp 1D newtonian damping applied on currents             (ln_c1d =T)
!!   namc1d_uvd   1D data (currents)                                    (ln_c1d =T)
!!======================================================================
!
!-----------------------------------------------------------------------
&namrun        !   parameters of the run
!-----------------------------------------------------------------------
   cn_exp      =  "eORCA025"  !  experience name
   nn_it000    =       1   !  first time step
   nn_itend    =       4   !  last  time step (std 5475)
   nn_date0    = 19580101   !  date at nit_0000 (format yyyymmdd) used if ln_rstart=F or (ln_rstart=T and nn_rstctl=0 or 1)
   nn_istate   =       0   !  output the initial state (1) or not (0)
/
!-----------------------------------------------------------------------
&namdom        !   time and space domain
!-----------------------------------------------------------------------
   rn_Dt       = 1350.     !  time step for the dynamics and tracer
   ln_meshmask = .false.   !  =T create a mesh file
/
!-----------------------------------------------------------------------
&namcfg        !   parameters of the configuration                      (default: use namusr_def in namelist_cfg)
!-----------------------------------------------------------------------
   ln_read_cfg = .true.    !  (=T) read the domain configuration file
      cn_domcfg = "eORCA025.L121_domain_cfg_b0.2_c3.0_d1.0"    ! domain configuration filename
      !
      ln_closea    = .false.    !  F => suppress closed seas (defined by closea_mask field) 
      !                         !       from the bathymetry at runtime.
/
!-----------------------------------------------------------------------
&namtsd        !    Temperature & Salinity Data  (init/dmp)             (default: OFF)
!-----------------------------------------------------------------------
   !                       ! =T  read T-S fields for:
   ln_tsd_init = .true.          !  ocean initialisation
   ln_tsd_dmp  = .false.         !  T-S restoring   (see namtra_dmp)

   cn_dir = '/scratch/project_2000789/nemoinput/eORCA025/'     !  root directory for the T-S data location
   !___________!_________________________!___________________!___________!_____________!________!___________!__________________!__________!_______________!
   !           !  file name              ! frequency (hours) ! variable  ! time interp.!  clim  ! 'yearly'/ ! weights filename ! rotation ! land/sea mask !
   !           !                         !  (if <0  months)  !   name    !   (logical) !  (T/F) ! 'monthly' !                  ! pairing  !    filename   !
   sn_tem = 'eORCA025.L121_WOA2018_b0.2_c3.0_d1.0_v19812010.5', -1., 'votemper',  .true.   , .true. , 'yearly'  ,  ''         , ' '      , ' '
   sn_sal = 'eORCA025.L121_WOA2018_b0.2_c3.0_d1.0_v19812010.5', -1., 'vosaline',  .true.   , .true. , 'yearly'  ,  ''         , ' '      , ' '
/
!!======================================================================
!!            ***  Surface Boundary Condition namelists  ***          !!
!!                                                                    !!
!!   namsbc          surface boundary condition manager                 (default: NO selection)
!!   namsbc_flx      flux               formulation                     (ln_flx     =T)
!!   namsbc_blk      Bulk formulae formulation                          (ln_blk     =T)
!!   namsbc_cpl      CouPLed            formulation                     ("key_oasis3" )
!!   namsbc_sas      Stand-Alone Surface module                         (SAS_SRC  only)
!!   namsbc_iif      Ice-IF: use observed ice cover                     (nn_ice = 1   )
!!   namtra_qsr      penetrative solar radiation                        (ln_traqsr  =T)
!!   namsbc_ssr      sea surface restoring term (for T and/or S)        (ln_ssr     =T)
!!   namsbc_rnf      river runoffs                                      (ln_rnf     =T)
!!   namsbc_apr      Atmospheric Pressure                               (ln_apr_dyn =T)
!!   namsbc_isf      ice shelf melting/freezing                         (ln_isfcav  =T : read (ln_read_cfg=T) or set or usr_def_zgr )
!!   namsbc_iscpl    coupling option between land ice model and ocean   (ln_isfcav  =T)
!!   namsbc_wave     external fields from wave model                    (ln_wave    =T)
!!   namberg         iceberg floats                                     (ln_icebergs=T)
!!======================================================================
!
!-----------------------------------------------------------------------
&namsbc        !   Surface Boundary Condition manager                   (default: NO selection)
!-----------------------------------------------------------------------
   nn_fsbc     = 1         !  frequency of SBC module call
                           !     (also = the frequency of sea-ice & iceberg model call)
                     ! Type of air-sea fluxes 
   ln_blk      = .true.    !  Bulk formulation                          (T => fill namsbc_blk )
                     ! Sea-ice :
   nn_ice      = 2         !  =0 no ice boundary condition
      !                    !  =1 use observed ice-cover                 (  => fill namsbc_iif )
      !                    !  =2 or 3 for SI3 and CICE, respectively
                     ! Misc. options of sbc : 
   ln_traqsr   = .true.    !  Light penetration in the ocean            (T => fill namtra_qsr)
   ln_ssr      = .true.    !  Sea Surface Restoring on T and/or S       (T => fill namsbc_ssr)
   ln_rnf      = .true.    !  runoffs                                   (T => fill namsbc_rnf)
   nn_fwb      = 1         !  FreshWater Budget: 
   !                       !    =1 global mean of e-p-r set to zero at each time step
   !                       !    =2 annual global mean of e-p-r set to zero
/
!-----------------------------------------------------------------------
&namsbc_blk    !   namsbc_blk  generic Bulk formula                     (ln_blk =T)
!-----------------------------------------------------------------------
   !                    !  bulk algorithm :
   ln_NCAR    = .true.     ! "NCAR"      algorithm   (Large and Yeager 2008)
      rn_zqt       = 2.     !  Air temperature & humidity reference height (m)

   cn_dir = '/scratch/project_2000789/nemoforcing/JRA-55/'  !  root directory for the bulk data location
   !___________!_________________________!___________________!___________!_____________!________!___________!______________________________________!__________!_______________!
   !           !  file name              ! frequency (hours) ! variable  ! time interp.!  clim  ! 'yearly'/ !          weights filename            ! rotation ! land/sea mask !
   !           !                         !  (if <0  months)  !   name    !   (logical) !  (T/F) ! 'monthly' !                                      ! pairing  !    filename   !
   sn_wndi = 'drowned_uas_JRA55'    ,  3.         ,  'uas'    ,    .true.   , .false. , 'yearly'  , 'eORCA025_JRA55_do_c3.0_weights_bicubic.nc' , 'U1' ,   ''
   sn_wndj = 'drowned_vas_JRA55'    ,  3.         ,  'vas'    ,    .true.   , .false. , 'yearly'  , 'eORCA025_JRA55_do_c3.0_weights_bicubic.nc' , 'V1' ,   ''
   sn_qsr  = 'drowned_rsds_JRA55'   ,  3.         ,  'rsds'   ,    .true.   , .false. , 'yearly'  , 'eORCA025_JRA55_do_c3.0_weights_bilin.nc' , ''   ,   ''
   sn_qlw  = 'drowned_rlds_JRA55'   ,  3.         ,  'rlds'   ,    .true.   , .false. , 'yearly'  , 'eORCA025_JRA55_do_c3.0_weights_bilin.nc' , ''   ,   ''
   sn_tair = 'drowned_tas_JRA55'    ,  3.         ,  'tas'    ,    .true.   , .false. , 'yearly'  , 'eORCA025_JRA55_do_c3.0_weights_bilin.nc' , ''   ,   ''
   sn_humi = 'drowned_huss_JRA55'   ,  3.         ,  'huss'   ,    .true.   , .false. , 'yearly'  , 'eORCA025_JRA55_do_c3.0_weights_bilin.nc' , ''   ,   ''
   sn_prec = 'drowned_tprecip_JRA55' , 3.         ,  'tprecip',    .true.   , .false. , 'yearly'  , 'eORCA025_JRA55_do_c3.0_weights_bilin.nc' , ''   ,   ''
   sn_snow = 'drowned_prsn_JRA55'   ,  3.         ,  'prsn'   ,    .true.   , .false. , 'yearly'  , 'eORCA025_JRA55_do_c3.0_weights_bilin.nc' , ''   ,   ''
   sn_slp  = 'drowned_psl_JRA55'    ,  3.         ,  'psl'    ,    .true.   , .false. , 'yearly'  , 'eORCA025_JRA55_do_c3.0_weights_bilin.nc' , ''   ,   ''
   sn_cc   = 'NOT USED'             , 24.         ,  'CC'     ,   .false.   , .false. , 'yearly'  , ''                                        , ''   ,   ''
/
!-----------------------------------------------------------------------
&namsbc_abl    !   Atmospheric Boundary Layer formulation           (ln_abl = T)
!-----------------------------------------------------------------------
/
!-----------------------------------------------------------------------
&namtra_qsr    !   penetrative solar radiation                          (ln_traqsr =T)
!-----------------------------------------------------------------------
   !                       ! type of penetration                        (default: NO selection)
   ln_qsr_rgb  = .true.       !  RGB light penetration (Red-Green-Blue)
   !
   rn_abs      =   0.53       !  RGB & 2BD: fraction absorbed in the very near surface
   nn_chldta   =      1       !  RGB : Chl data (=1) or cst value (=0)

   cn_dir = '/scratch/project_2000789/nemoinput/eORCA025/'  !  root directory for the chlorophyl data location
   !___________!_________________________!___________________!___________!_____________!________!___________!__________________!__________!_______________!
   !           !  file name              ! frequency (hours) ! variable  ! time interp.!  clim  ! 'yearly'/ ! weights filename ! rotation ! land/sea mask !
   !           !                         !  (if <0  months)  !   name    !   (logical) !  (T/F) ! 'monthly' !                  ! pairing  !    filename   !
   sn_chl      = 'chlorophyl_v0.0.nc'    , -1.               , 'CHLA'    ,   .true.    , .true. , 'yearly'  , 'eORCA025_chlorophyl_v0.0_c3.0_weights_bilin.nc'       , ''       , ''
/
!-----------------------------------------------------------------------
&namsbc_ssr    !   surface boundary condition : sea surface restoring   (ln_ssr =T)
!-----------------------------------------------------------------------
   nn_sssr     =     2     !  add a damping term to the surface freshwater flux
      rn_deds     =  -166.67  !  magnitude of the damping on salinity   [mm/day]
      ln_sssr_bnd =  .true.   !  flag to bound erp term (associated with nn_sssr=2)
      rn_sssr_bnd =   4.e0    !  ABS(Max/Min) value of the damping erp term [mm/day]

   cn_dir      = '/scratch/project_2000789/nemoinput/eORCA025/'      !  root directory for the SST/SSS data location
   !___________!_________________________!___________________!___________!_____________!________!___________!__________________!__________!_______________!
   !           !  file name              ! frequency (hours) ! variable  ! time interp.!  clim  ! 'yearly'/ ! weights filename ! rotation ! land/sea mask !
   !           !                         !  (if <0  months)  !   name    !   (logical) !  (T/F) ! 'monthly' !                  ! pairing  !    filename   !
   sn_sst      = 'NOT_USED'           ,        24.        ,  'sst'    ,    .false.  , .false., 'yearly'  ,    ''     ,    ''    ,     ''
   sn_sss      = 'eORCA025_sss_WOA2018_c3.0_v19812010.5' , -1. , 'sosaline' , .true. , .true. , 'yearly' ,  ''     ,    ''    ,     ''
/
!-----------------------------------------------------------------------
&namsbc_rnf    !   runoffs                                              (ln_rnf =T)
!-----------------------------------------------------------------------
   ln_rnf_mouth = .true.    !  specific treatment at rivers mouths
      rn_hrnf     =  10.e0    !  depth over which enhanced vertical mixing is used    (ln_rnf_mouth=T)
      rn_avt_rnf  =   2.e-3   !  value of the additional vertical mixing coef. [m2/s] (ln_rnf_mouth=T)
   rn_rfact    =   1.e0    !  multiplicative factor for runoff

   cn_dir = '/scratch/project_2000789/nemoinput/eORCA025/'  !  root directory for the location of the runoff files
   !___________!_____________!___________________!___________!_____________!_________!___________!__________!__________!_______________!
   !           !  file name  ! frequency (hours) ! variable  ! time interp. !  clim  ! 'yearly'/ ! weights  ! rotation ! land/sea mask !
   !           !             !  (if <0  months)  !   name    !   (logical)  !  (T/F) ! 'monthly' ! filename ! pairing  ! filename      !
   sn_rnf      = 'eORCA025_runoff_b0.2_v0.0.nc',   -1.       , 'sorunoff',   .true.    , .true. , 'yearly'  , ''               , ''       , ''
   sn_cnf      = 'eORCA025_runoff_b0.2_v0.0.nc',    0.       , 'socoefr' ,   .false.   , .true. , 'yearly'  , ''               , ''       , ''
   sn_s_rnf    = 'NOT_USED'              ,        24.        , 'rosaline',   .true.    , .true. , 'yearly'  , ''               , ''       , ''
   sn_t_rnf    = 'NOT_USED'              ,        24.        , 'rotemper',   .true.    , .true. , 'yearly'  , ''               , ''       , ''
   sn_i_rnf    = 'NOT_USED'              ,        -1.        , 'sorunoff',   .true.    , .true. , 'yearly'  , ''               , ''       , ''
   sn_dep_rnf  = 'NOT_USED'              ,         0.        , 'rodepth' ,   .false.   , .true. , 'yearly'  , ''               , ''       , ''
/
!-----------------------------------------------------------------------
&namisf       !  Top boundary layer (ISF)                               (default: OFF)
!-----------------------------------------------------------------------
   ln_isf = .true.           ! activate ice shelf module
      ln_isfcav_mlt = .true.    ! ice shelf melting into the cavity (need ln_isfcav = .true. in domain_cfg.nc)
         rn_htbl     =  20.      ! thickness of the top boundary layer    (Losh et al. 2008)
         !___________!_____________!___________________!___________!_____________!_________!___________!__________!__________!_______________!
         !           !  file name  ! frequency (hours) ! variable  ! time interp.!  clim   ! 'yearly'/ ! weights  ! rotation ! land/sea mask !
         !           !             !  (if <0  months)  !   name    !  (logical)  !  (T/F)  ! 'monthly' ! filename ! pairing  ! filename      !
         sn_isfcav_fwf = 'NOT_USED',      -12.      , 'fwflisf'  ,  .false.    , .true.  , 'yearly'  ,    ''    ,   ''     ,    ''
         !___________!_____________!___________________!___________!_____________!_________!___________!__________!__________!_______________!
         !           !  file name  ! frequency (hours) ! variable  ! time interp.!  clim   ! 'yearly'/ ! weights  ! rotation ! land/sea mask !
         !           !             !  (if <0  months)  !   name    !  (logical)  !  (T/F)  ! 'monthly' ! filename ! pairing  ! filename      !
         sn_isfpar_zmax = 'NOT_USED',       0.       ,'sozisfmax',  .false.    , .true.  , 'yearly'  ,    ''    ,   ''     ,    ''
         sn_isfpar_zmin = 'NOT_USED',       0.       ,'sozisfmin',  .false.    , .true.  , 'yearly'  ,    ''    ,   ''     ,    ''
         !
         !* 'spe' and 'oasis' case
         sn_isfpar_fwf = 'NOT_USED' ,      -12.      ,'sofwfisf' ,  .false.    , .true.  , 'yearly'  ,    ''    ,   ''     ,    ''
         !
         !* 'bg03' case
         !* Leff is in [km]
         sn_isfpar_Leff = 'NOT_USED',       0.       ,'Leff'     ,  .false.    , .true.  , 'yearly'  ,    ''    ,   ''     ,    ''
/
!-----------------------------------------------------------------------
&namsbc_wave   ! External fields from wave model                        (ln_wave=T)
!-----------------------------------------------------------------------
   ln_sdw      = .false.    !  get the 2D Surf Stokes Drift & Compute the 3D stokes drift
   ln_stcor    = .false.    !  add Stokes Coriolis and tracer advection terms
   ln_cdgw     = .false.    !  Neutral drag coefficient read from wave model
   ln_tauoc    = .false.    !  ocean stress is modified by wave induced stress
   ln_wave_test= .false.    !  Test case with constant wave fields
!
   ln_charn    = .false.     !  Charnock coefficient read from wave model (IFS only)
   ln_taw      = .false.     !  ocean stress is modified by wave induced stress (coupled mode)
   ln_phioc    = .false.     !  TKE flux from wave model
   ln_bern_srfc= .false.     ! wave induced pressure. Bernoulli head J term
   ln_breivikFV_2016 = .false. ! breivik 2016 vertical stokes profile
   ln_vortex_force = .false.
!
   cn_dir      = './'      !  root directory for the waves data location
   !___________!_________________________!___________________!___________!_____________!________!___________!__________________!__________!_______________!
   !           !  file name              ! frequency (hours) ! variable  ! time interp.!  clim  ! 'yearly'/ ! weights filename ! rotation ! land/sea mask !
   !           !                         !  (if <0  months)  !   name    !   (logical) !  (T/F) ! 'monthly' !                  ! pairing  !    filename   !
   sn_cdg      =  'sdw_ecwaves_orca2'    ,        6.         , 'drag_coeff' ,  .true.  , .true. , 'yearly'  ,  ''              , ''       , ''
   sn_usd      =  'sdw_ecwaves_orca2'    ,        6.         , 'u_sd2d'     ,  .true.  , .true. , 'yearly'  ,  ''              , ''       , ''
   sn_vsd      =  'sdw_ecwaves_orca2'    ,        6.         , 'v_sd2d'     ,  .true.  , .true. , 'yearly'  ,  ''              , ''       , ''
   sn_hsw      =  'sdw_ecwaves_orca2'    ,        6.         , 'hs'         ,  .true.  , .true. , 'yearly'  ,  ''              , ''       , ''
   sn_wmp      =  'sdw_ecwaves_orca2'    ,        6.         , 'wmp'        ,  .true.  , .true. , 'yearly'  ,  ''              , ''       , ''
   sn_wnum     =  'sdw_ecwaves_orca2'    ,        6.         , 'wave_num'   ,  .true.  , .true. , 'yearly'  ,  ''              , ''       , ''
/
!-----------------------------------------------------------------------
&namberg       !   iceberg parameters                                   (default: OFF)
!-----------------------------------------------------------------------
   ln_icebergs = .true.    ! activate iceberg floats (force =F with "key_agrif")
   ln_bergdia        = .true.        ! Calculate budgets
   nn_verbose_level  = 0             ! Turn on more verbose output if level > 0
   nn_verbose_write  = 64            ! Timesteps between verbose messages
   nn_sample_rate    = 64            ! Timesteps between sampling for trajectory storage
   nn_test_icebergs        =  -1     ! Create test icebergs of this class (-1 = no)
   ln_M2016                = .true. ! use Merino et al. (2016) modification (use of 3d ocean data instead of only sea surface data)

   cn_dir = '/scratch/project_2000789/nemoinput/eORCA025/'  !  root directory for the location of drag coefficient files
   !______!___________!___________________!______________!______________!_________!___________!__________!__________!_______________!
   !      ! file name ! frequency (hours) !   variable   ! time interp. !  clim   ! 'yearly'/ ! weights  ! rotation ! land/sea mask !
   !      !           !  (if <0  months)  !     name     !   (logical)  !  (T/F ) ! 'monthly' ! filename ! pairing  ! filename      !
   sn_icb     =  'eORCA025_calving_b0.2_v2.3',      -12.     ,'soicbclv' ,    .true.   , .true. , 'yearly'  , ''               , ''       , ''
/
!!======================================================================
!!               ***  Lateral boundary condition  ***                 !!
!!                                                                    !!
!!   namlbc        lateral momentum boundary condition                  (default: NO selection)
!!   namagrif      agrif nested grid   (read by child model only)       ("key_agrif")
!!   nam_tide      Tidal forcing                                        (default: OFF)
!!   nambdy        Unstructured open boundaries                         (default: OFF)
!!   nambdy_dta    Unstructured open boundaries - external data         (see  nambdy)
!!   nambdy_tide   tidal forcing at open boundaries                     (default: OFF)
!!======================================================================
!
!-----------------------------------------------------------------------
&namlbc        !   lateral momentum boundary condition                  (default: NO selection)
!-----------------------------------------------------------------------
   !                       !  free slip  !   partial slip  !   no slip   ! strong slip
   rn_shlat    =    0.     !  shlat = 0  !  0 < shlat < 2  !  shlat = 2  !  2 < shlat
   ln_vorlat   = .false.   !  consistency of vorticity boundary condition with analytical Eqs.
/
!-----------------------------------------------------------------------
&namagrif      !  AGRIF zoom                                            ("key_agrif")
!-----------------------------------------------------------------------
   ln_spc_dyn    = .true.  !  use 0 as special value for dynamics
   rn_sponge_tra = 2880.   !  coefficient for tracer   sponge layer [m2/s]
   rn_sponge_dyn = 2880.   !  coefficient for dynamics sponge layer [m2/s]
   ln_chk_bathy  = .false. !  =T  check the parent bathymetry
/
!!======================================================================
!!                ***  Top/Bottom boundary condition  ***             !!
!!                                                                    !!
!!   namdrg        top/bottom drag coefficient                          (default: NO selection)
!!   namdrg_top    top    friction                                      (ln_drg_OFF=F & ln_isfcav=T)
!!   namdrg_bot    bottom friction                                      (ln_drg_OFF=F)
!!   nambbc        bottom temperature boundary condition                (default: OFF)
!!   nambbl        bottom boundary layer scheme                         (default: OFF)
!!======================================================================
!
!-----------------------------------------------------------------------
&namdrg        !   top/bottom drag coefficient                          (default: NO selection)
!-----------------------------------------------------------------------
   ln_non_lin  = .true.   !  non-linear  drag: Cd = Cd0 |U|
/
!-----------------------------------------------------------------------
&namdrg_top    !   TOP friction                                         (ln_drg_OFF =F & ln_isfcav=T)
!-----------------------------------------------------------------------
   rn_Cd0      =  2.5e-3   !  drag coefficient [-]
   rn_ke0      =  0.0      !  background kinetic energy  [m2/s2] (non-linear cases)
/
!-----------------------------------------------------------------------
&namdrg_bot    !   BOTTOM friction                                      (ln_drg_OFF =F)
!-----------------------------------------------------------------------
   ln_boost    = .true.    !  =T regional boost of Cd0 ; =F constant
/
!-----------------------------------------------------------------------
&nambbc        !   bottom temperature boundary condition                (default: OFF)
!-----------------------------------------------------------------------
   ln_trabbc   = .true.    !  Apply a geothermal heating at the ocean bottom
      nn_geoflx   =    2      !  geothermal heat flux: = 2 read variable flux [mW/m2]

   cn_dir = '/scratch/project_2000789/nemoinput/eORCA025/'  !  root directory for the geothermal data location
   !___________!_________________________!___________________!___________!_____________!________!___________!__________________!__________!_______________!
   !           !  file name              ! frequency (hours) ! variable  ! time interp.!  clim  ! 'yearly'/ ! weights filename ! rotation ! land/sea mask !
   !           !                         !  (if <0  months)  !   name    !   (logical) !  (T/F) ! 'monthly' !                  ! pairing  !    filename   !
   sn_qgh      ='ghflux_v2.0.nc'         ,       -12.        , 'gh_flux' ,   .false.   , .true. , 'yearly'  , 'eORCA025_ghflux_v2.0_c3.0_weights_bilin.nc' ,   ''     ,   ''
/
!-----------------------------------------------------------------------
&nambbl        !   bottom boundary layer scheme                         (default: OFF)
!-----------------------------------------------------------------------
   ln_trabbl   = .true.    !  Bottom Boundary Layer parameterisation flag
      nn_bbl_ldf  =  1        !  diffusive bbl (=1)   or not (=0)
      nn_bbl_adv  =  1        !  advective bbl (=1/2) or not (=0)
      rn_ahtbbl   =  1000.    !  lateral mixing coefficient in the bbl  [m2/s]
      rn_gambbl   =  10.      !  advective bbl coefficient                 [s]
/
!!======================================================================
!!                        Tracer (T-S) namelists                      !!
!!                                                                    !!
!!   nameos        equation of state                                    (default: NO selection)
!!   namtra_adv    advection scheme                                     (default: NO selection)
!!   namtra_ldf    lateral diffusion scheme                             (default: NO selection)
!!   namtra_mle    mixed layer eddy param. (Fox-Kemper param.)          (default: OFF)
!!   namtra_eiv    eddy induced velocity param.                         (default: OFF)
!!   namtra_dmp    T & S newtonian damping                              (default: OFF)
!!======================================================================
!
!-----------------------------------------------------------------------
&nameos        !   ocean Equation Of Seawater                           (default: NO selection)
!-----------------------------------------------------------------------
   ln_teos10   = .true.         !  = Use TEOS-10
/
!-----------------------------------------------------------------------
&namtra_adv    !   advection scheme for tracer                          (default: NO selection)
!-----------------------------------------------------------------------
   ln_traadv_fct = .true.     !  FCT scheme
      nn_fct_h   =  4               !  =2/4, horizontal 2nd / 4th order 
      nn_fct_v   =  2               !  =2/4, vertical   2nd / COMPACT 4th order 
/
!-----------------------------------------------------------------------
&namtra_ldf    !   lateral diffusion scheme for tracers                 (default: NO selection)
!-----------------------------------------------------------------------
   ln_traldf_lap   = .true.    !    laplacian operator
   ln_traldf_iso   = .true.    !  iso-neutral (Standard operator)
   !                       !  Coefficients:
   nn_aht_ijk_t    = 20        !  space/time variation of eddy coef
      !                             !   = 20     aht = 1/2  Ud. max(e1,e2)
      rn_Ud        = 0.011          !  lateral diffusive velocity [m/s] (nn_aht_ijk_t= 0, 10, 20, 30)
      rn_Ld        = 200.e+3        !  lateral diffusive length   [m]   (nn_aht_ijk_t= 0, 10)
/
!-----------------------------------------------------------------------
&namtra_mle    !   mixed layer eddy parametrisation (Fox-Kemper)        (default: OFF)
!-----------------------------------------------------------------------
   ln_mle      = .true.   ! (T) use the Mixed Layer Eddy (MLE) parameterisation
/
!-----------------------------------------------------------------------
&namtra_eiv    !   eddy induced velocity param.                         (default: OFF)
!-----------------------------------------------------------------------
   ln_ldfeiv   = .true.    ! use eddy induced velocity parameterization
      !                        !  Coefficients:
      nn_aei_ijk_t  = 21          ! space/time variation of the eiv coeficient
      !                                !   = 21 F(i,j,t)  =Treguier et al. JPO 1997 formulation
      !                           !  time invariant coefficients:  aei0 = 1/2  Ue*Le 
      rn_Ue        = 0.03              !  lateral diffusive velocity [m/s] (nn_aht_ijk_t= 0, 10, 20, 30)
      rn_Le        = 200.e+3           !  lateral diffusive length   [m]   (nn_aht_ijk_t= 0, 10)
      !
      ln_ldfeiv_dia =.true.   ! diagnose eiv stream function and velocities
/
!-----------------------------------------------------------------------
&namtra_dmp    !   tracer: T & S newtonian damping                      (default: OFF)
!-----------------------------------------------------------------------
   ln_tradmp   =  .false.   !  add a damping term (using resto.nc coef.)
      nn_zdmp  =    0         !  vertical shape =0    damping throughout the water column
      cn_resto = 'NOT_USED'   !  Name of file containing restoration coeff. field (use dmp_tools to create this)
/